
*SOIL N BALANCE - CENTURY ROUTINES

*DSSAT Cropping System Model Ver. 4.7.5.012   -develop    FEB 25, 2020; 18:09:13

!                     |------------------- N State Variables -------------------| |------------ N Additions ------------| |--------------- N Subtractions ----------------| |-Mineralization--|
!                                                                                   Harvest   Applied                                   Tile-     N gas     Flood    Miner-    Immob-  Seasonal
!                       Surface      SOM1      SOM2      SOM3    Litter     Inorg   Residue   Residue  Fertiliz   Senesed   Leached   drained    Uptake    Losses    Losses    alized    ilized   Balance
@Run FILEX         TN      SN0D     S1NTD     S2NTD     S3NTD      LNTD      NIAD      HRNH     RESNC      NICM     SNNTC      NLCM      TDFC      NUCM     NGasC      RNRO      NMNC      NIMC   SEASBAL
   1 UFGA7801.SBX INIT     0.00      0.00   3891.90      0.00      0.75      0.00
   1 UFGA7801.SBX   1      0.00      0.00   3872.61      0.00     12.80     18.23      0.00      8.00      0.00     70.26     42.71      0.00     10.56      1.34      0.00     34.06      0.55      0.00
   2 UFGA7801.SBX   2      0.00      0.00   3875.97      0.00     17.40     19.67      0.00      8.00      0.00     88.24     40.25      0.00      6.20      1.24      0.00     28.64      0.60     -0.00

*SOIL N BALANCE - CENTURY ROUTINES

*DSSAT Cropping System Model Ver. 4.7.5.012   -develop    FEB 25, 2020; 18:09:19

!                     |------------------- N State Variables -------------------| |------------ N Additions ------------| |--------------- N Subtractions ----------------| |-Mineralization--|
!                                                                                   Harvest   Applied                                   Tile-     N gas     Flood    Miner-    Immob-  Seasonal
!                       Surface      SOM1      SOM2      SOM3    Litter     Inorg   Residue   Residue  Fertiliz   Senesed   Leached   drained    Uptake    Losses    Losses    alized    ilized   Balance
@Run FILEX         TN      SN0D     S1NTD     S2NTD     S3NTD      LNTD      NIAD      HRNH     RESNC      NICM     SNNTC      NLCM      TDFC      NUCM     NGasC      RNRO      NMNC      NIMC   SEASBAL
   1 UFGA7801.SBX INIT     0.00      0.00   3891.90      0.00      0.75      0.00
   1 UFGA7801.SBX   1      0.00      0.00   3872.61      0.00     12.80     18.23      0.00      8.00      0.00     70.26     42.71      0.00     10.56      1.34      0.00     34.06      0.55      0.00
   2 UFGA7801.SBX   2      0.00      0.00   3875.97      0.00     17.40     19.67      0.00      8.00      0.00     88.24     40.25      0.00      6.20      1.24      0.00     28.64      0.60     -0.00

*SOIL N BALANCE - CENTURY ROUTINES

*DSSAT Cropping System Model Ver. 4.7.5.012   -develop    FEB 25, 2020; 18:10:47

!                     |------------------- N State Variables -------------------| |------------ N Additions ------------| |--------------- N Subtractions ----------------| |-Mineralization--|
!                                                                                   Harvest   Applied                                   Tile-     N gas     Flood    Miner-    Immob-  Seasonal
!                       Surface      SOM1      SOM2      SOM3    Litter     Inorg   Residue   Residue  Fertiliz   Senesed   Leached   drained    Uptake    Losses    Losses    alized    ilized   Balance
@Run FILEX         TN      SN0D     S1NTD     S2NTD     S3NTD      LNTD      NIAD      HRNH     RESNC      NICM     SNNTC      NLCM      TDFC      NUCM     NGasC      RNRO      NMNC      NIMC   SEASBAL
   1 UFGA7801.SBX INIT     0.00      0.00   3891.90      0.00      0.75      0.00
   1 UFGA7801.SBX   1      0.00      0.00   3872.61      0.00     12.80     18.23      0.00      8.00      0.00     70.26     42.71      0.00     10.56      1.34      0.00     34.06      0.55      0.00
   2 UFGA7801.SBX   2      0.00      0.00   3875.97      0.00     17.40     19.67      0.00      8.00      0.00     88.24     40.25      0.00      6.20      1.24      0.00     28.64      0.60     -0.00
